
Note: Compatibility modes selected: hs a


Circuit: * sky130 bjt 1-stage transient sanity check

Warning: Model issue on line 28 :
  .model xq1:sky130_fd_pr__npn_05v5_w1p00l1p00__model npn level=1.0 tref=3 ...
unrecognized parameter (dcap) - ignored
unrecognized parameter (gap1) - ignored
unrecognized parameter (gap2) - ignored

Doing analysis at TEMP = 27.000000 and TNOM = 27.000000

Using KLU as Direct Linear Solver

No. of Data Rows : 1
Doing analysis at TEMP = 27.000000 and TNOM = 27.000000

Using KLU as Direct Linear Solver

Initial Transient Solution
--------------------------

Node                                   Voltage
----                                   -------
vdd                                          5
vin                                        2.5
b1_base                                1.12921
b1_collector                           3.36583
b1_emitter                            0.335519
b1_out                                 3.36583
vout_alias#branch                 -3.36583e-09
vin#branch                                   0
vdd#branch                        -2.80714e-05


No. of Data Rows : 10008
out_max             =  3.37032e+00 at=  5.74928e-03
out_min             =  3.36135e+00 at=  9.24928e-03
vin_max             =  2.50100e+00 at=  9.25028e-03
vin_min             =  2.49900e+00 at=  9.75028e-03
ASCII raw file "D:/Codex/Support/results/ngspice/raw/bjt1_tran.raw"
ngspice-46 done
