
Note: Compatibility modes selected: hs a


Circuit: * sky130 bjt 1-stage ac sanity check

Warning: Model issue on line 28 :
  .model xq1:sky130_fd_pr__npn_05v5_w1p00l1p00__model npn level=1.0 tref=3 ...
unrecognized parameter (dcap) - ignored
unrecognized parameter (gap1) - ignored
unrecognized parameter (gap2) - ignored

Doing analysis at TEMP = 27.000000 and TNOM = 27.000000

Using KLU as Direct Linear Solver

No. of Data Rows : 1
Doing analysis at TEMP = 27.000000 and TNOM = 27.000000

Using KLU as Direct Linear Solver

No. of Data Rows : 301
midgain_vv          =  4.48219e+00
midgain_db          =  1.30298e+01
phase_1k_deg        =  -3.13934e+00
ASCII raw file "D:/Codex/Support/results/ngspice/raw/bjt1_ac.raw"
ngspice-46 done
