
Note: No compatibility mode selected!


Circuit: * sky130 bjt 2-stage ppa sweep op: ce1 -> ce2 -> output rebias -> ideal opamp follower -> two rc poles

Warning: Model issue on line 28 :
  .model xq1:sky130_fd_pr__npn_05v5_w1p00l1p00__model npn level=1.0 tref=3 ...
unrecognized parameter (dcap) - ignored
unrecognized parameter (gap1) - ignored
unrecognized parameter (gap2) - ignored

Warning: Model issue on line 28 :
  .model xq2:sky130_fd_pr__npn_05v5_w1p00l1p00__model npn level=1.0 tref=3 ...
unrecognized parameter (dcap) - ignored
unrecognized parameter (gap1) - ignored
unrecognized parameter (gap2) - ignored

Doing analysis at TEMP = 27.000000 and TNOM = 27.000000

Using KLU as Direct Linear Solver

No. of Data Rows : 1
v(vdd) = 5.000000e+00
v(b1_base) = 6.395888e-01
v(b1_emitter) = 5.705746e-04
v(b1_collector) = 4.991688e+00
v(b2_base) = 6.395888e-01
v(b2_emitter) = 5.705746e-04
v(b2_collector) = 4.991688e+00
v(vout_drv) = 2.500000e+00
v(vfilt1) = 2.500000e+00
v(vout_final) = 2.500000e+00
v(b1_base)-v(b1_emitter) = 6.390182e-01
v(b1_collector)-v(b1_emitter) = 4.991117e+00
v(b2_base)-v(b2_emitter) = 6.390182e-01
v(b2_collector)-v(b2_emitter) = 4.991117e+00
v(b1_collector)-v(b2_base) = 4.352099e+00
i(vdd) = -1.21433e-05
ASCII raw file "D:/Codex/Support/Microelectronics-2stage/results/ngspice/raw_tmp/bjt2_sweep_ppa_rc150k_re10k_rb6p8m_c47n_cout15n_r10k_c220p_ft1p5m_op.raw"
ngspice-46 done
