
Note: No compatibility mode selected!


Circuit: * sky130 bjt 2-stage ppa sweep ac: ce1 -> ce2 -> output rebias -> ideal opamp follower -> two rc poles

Warning: Model issue on line 28 :
  .model xq1:sky130_fd_pr__npn_05v5_w1p00l1p00__model npn level=1.0 tref=3 ...
unrecognized parameter (dcap) - ignored
unrecognized parameter (gap1) - ignored
unrecognized parameter (gap2) - ignored

Warning: Model issue on line 28 :
  .model xq2:sky130_fd_pr__npn_05v5_w1p00l1p00__model npn level=1.0 tref=3 ...
unrecognized parameter (dcap) - ignored
unrecognized parameter (gap1) - ignored
unrecognized parameter (gap2) - ignored

Doing analysis at TEMP = 27.000000 and TNOM = 27.000000

Using KLU as Direct Linear Solver

No. of Data Rows : 1
Doing analysis at TEMP = 27.000000 and TNOM = 27.000000

Using KLU as Direct Linear Solver

No. of Data Rows : 721
midgain_vv          =  9.59566e+01
midgain_db          =  3.96415e+01
phase_1k_deg        =  4.54553e-03
ASCII raw file "D:/Codex/Support/Microelectronics-2stage-autotopo-ppa/results/ngspice/raw/bjt2_autotopo_ilf_rc120k_re3p9k_rb4p7m_cin68n_c12a15n_c12b10n_rlf15m_cout10n_ch24p_r12k_c180p_ft250k_ac.raw"
ngspice-46 done
