
Note: No compatibility mode selected!


Circuit: * sky130 bjt 2-stage ppa sweep ac: ce1 -> ce2 -> output rebias -> ideal opamp follower -> two rc poles

Warning: Model issue on line 28 :
  .model xq1:sky130_fd_pr__npn_05v5_w1p00l1p00__model npn level=1.0 tref=3 ...
unrecognized parameter (dcap) - ignored
unrecognized parameter (gap1) - ignored
unrecognized parameter (gap2) - ignored

Warning: Model issue on line 28 :
  .model xq2:sky130_fd_pr__npn_05v5_w1p00l1p00__model npn level=1.0 tref=3 ...
unrecognized parameter (dcap) - ignored
unrecognized parameter (gap1) - ignored
unrecognized parameter (gap2) - ignored

Doing analysis at TEMP = 27.000000 and TNOM = 27.000000

Using KLU as Direct Linear Solver

No. of Data Rows : 1
Doing analysis at TEMP = 27.000000 and TNOM = 27.000000

Using KLU as Direct Linear Solver

No. of Data Rows : 721
midgain_vv          =  7.52398e-02
midgain_db          =  -2.24710e+01
phase_1k_deg        =  -5.72694e-02
ASCII raw file "D:/Codex/Support/Microelectronics-2stage/results/ngspice/raw_tmp/bjt2_sweep_ppa_rc150k_re10k_rb6p8m_c47n_cout15n_r10k_c220p_ft1p5m_ac.raw"
ngspice-46 done
