
Note: Compatibility modes selected: hs a


Circuit: * sky130 bjt 2-stage dc operating point sanity check

Warning: Model issue on line 28 :
  .model xq1:sky130_fd_pr__npn_05v5_w1p00l1p00__model npn level=1.0 tref=3 ...
unrecognized parameter (dcap) - ignored
unrecognized parameter (gap1) - ignored
unrecognized parameter (gap2) - ignored

Warning: Model issue on line 28 :
  .model xq2:sky130_fd_pr__npn_05v5_w1p00l1p00__model npn level=1.0 tref=3 ...
unrecognized parameter (dcap) - ignored
unrecognized parameter (gap1) - ignored
unrecognized parameter (gap2) - ignored

Doing analysis at TEMP = 27.000000 and TNOM = 27.000000

Using KLU as Direct Linear Solver

No. of Data Rows : 1
v(vdd) = 5.000000e+00
v(b1_base) = 1.129207e+00
v(b1_emitter) = 3.355191e-01
v(b1_collector) = 3.366164e+00
v(b2_base) = 1.129207e+00
v(b2_emitter) = 3.355190e-01
v(b2_collector) = 3.365828e+00
v(vout_final) = 3.365828e+00
v(b1_base)-v(b1_emitter) = 7.936883e-01
v(b1_collector)-v(b1_emitter) = 3.030645e+00
v(b2_base)-v(b2_emitter) = 7.936884e-01
v(b2_collector)-v(b2_emitter) = 3.030309e+00
v(b1_collector)-v(b2_base) = 2.236957e+00
i(vdd) = -5.61394e-05
ASCII raw file "D:/Codex/Support/results/ngspice/raw/bjt2_op.raw"
ngspice-46 done
