
Note: No compatibility mode selected!


Circuit: * sky130 bjt 2-stage ppa sweep op: ce1 -> ce2 -> output rebias -> ideal opamp follower -> two rc poles

Warning: Model issue on line 28 :
  .model xq1:sky130_fd_pr__npn_05v5_w1p00l1p00__model npn level=1.0 tref=3 ...
unrecognized parameter (dcap) - ignored
unrecognized parameter (gap1) - ignored
unrecognized parameter (gap2) - ignored

Warning: Model issue on line 28 :
  .model xq2:sky130_fd_pr__npn_05v5_w1p00l1p00__model npn level=1.0 tref=3 ...
unrecognized parameter (dcap) - ignored
unrecognized parameter (gap1) - ignored
unrecognized parameter (gap2) - ignored

Doing analysis at TEMP = 27.000000 and TNOM = 27.000000

Using KLU as Direct Linear Solver

No. of Data Rows : 1
v(vdd) = 5.000000e+00
v(b1_base) = 7.890403e-01
v(b1_emitter) = 3.415331e-02
v(b1_collector) = 4.594187e+00
v(b2_base) = 7.890403e-01
v(b2_emitter) = 3.415331e-02
v(b2_collector) = 4.594187e+00
v(vout_drv) = 2.500000e+00
v(vfilt1) = 2.500000e+00
v(vout_final) = 2.500000e+00
v(b1_base)-v(b1_emitter) = 7.548870e-01
v(b1_collector)-v(b1_emitter) = 4.560033e+00
v(b2_base)-v(b2_emitter) = 7.548870e-01
v(b2_collector)-v(b2_emitter) = 4.560033e+00
v(b1_collector)-v(b2_base) = 3.805146e+00
i(vdd) = -2.06582e-05
ASCII raw file "D:/Codex/Support/Microelectronics-2stage/results/ngspice/raw_tmp/bjt2_sweep_ppa_rc100k_re8p2k_rb4p7m_c68n_cout10n_r15k_c150p_ft1p5m_op.raw"
ngspice-46 done
