
Note: Compatibility modes selected: hs a


Circuit: * sky130 bjt 3-stage gain/headroom sweep transient candidate: re=18.5k

Warning: Model issue on line 28 :
  .model xq1:sky130_fd_pr__npn_05v5_w1p00l1p00__model npn level=1.0 tref=3 ...
unrecognized parameter (dcap) - ignored
unrecognized parameter (gap1) - ignored
unrecognized parameter (gap2) - ignored

Warning: Model issue on line 28 :
  .model xq2:sky130_fd_pr__npn_05v5_w1p00l1p00__model npn level=1.0 tref=3 ...
unrecognized parameter (dcap) - ignored
unrecognized parameter (gap1) - ignored
unrecognized parameter (gap2) - ignored

Warning: Model issue on line 28 :
  .model xq3:sky130_fd_pr__npn_05v5_w1p00l1p00__model npn level=1.0 tref=3 ...
unrecognized parameter (dcap) - ignored
unrecognized parameter (gap1) - ignored
unrecognized parameter (gap2) - ignored

Doing analysis at TEMP = 27.000000 and TNOM = 27.000000

Using KLU as Direct Linear Solver

No. of Data Rows : 1
Doing analysis at TEMP = 27.000000 and TNOM = 27.000000

Using KLU as Direct Linear Solver

Initial Transient Solution
--------------------------

Node                                   Voltage
----                                   -------
vdd                                          5
vin                                        2.5
b1_base                                0.96431
b1_collector                           3.82991
b1_emitter                            0.185174
b2_base                                0.96431
b2_collector                           3.82991
b2_emitter                            0.185174
b3_base                                0.96431
b3_collector                           3.82945
b3_emitter                            0.185173
vout_final                             3.82945
vout_alias#branch                 -3.82945e-09
vin#branch                                   0
vdd#branch                        -3.29249e-05


No. of Data Rows : 20008
out_max             =  3.92624e+00 at=  9.97564e-02
out_min             =  3.73201e+00 at=  6.02564e-02
vin_max             =  2.50100e+00 at=  6.92514e-02
vin_min             =  2.49900e+00 at=  6.97514e-02
ASCII raw file "D:/Codex/Support/results/ngspice/raw/bjt3_sweep_gain_re18p5k_tran.raw"
ngspice-46 done
