
Note: Compatibility modes selected: hs a


Circuit: * sky130 bjt 3-stage high-cutoff sweep transient candidate: ch=39p

Warning: Model issue on line 28 :
  .model xq1:sky130_fd_pr__npn_05v5_w1p00l1p00__model npn level=1.0 tref=3 ...
unrecognized parameter (dcap) - ignored
unrecognized parameter (gap1) - ignored
unrecognized parameter (gap2) - ignored

Warning: Model issue on line 28 :
  .model xq2:sky130_fd_pr__npn_05v5_w1p00l1p00__model npn level=1.0 tref=3 ...
unrecognized parameter (dcap) - ignored
unrecognized parameter (gap1) - ignored
unrecognized parameter (gap2) - ignored

Warning: Model issue on line 28 :
  .model xq3:sky130_fd_pr__npn_05v5_w1p00l1p00__model npn level=1.0 tref=3 ...
unrecognized parameter (dcap) - ignored
unrecognized parameter (gap1) - ignored
unrecognized parameter (gap2) - ignored

Doing analysis at TEMP = 27.000000 and TNOM = 27.000000

Using KLU as Direct Linear Solver

No. of Data Rows : 1
Doing analysis at TEMP = 27.000000 and TNOM = 27.000000

Using KLU as Direct Linear Solver

Initial Transient Solution
--------------------------

Node                                   Voltage
----                                   -------
vdd                                          5
vin                                        2.5
b1_base                                0.97133
b1_collector                           3.87082
b1_emitter                            0.193186
b2_base                                0.97133
b2_collector                           3.87082
b2_emitter                            0.193186
b3_base                                0.97133
b3_collector                           3.87036
b3_emitter                            0.193186
vout_final                             3.87036
vout_alias#branch                 -3.87036e-09
vin#branch                                   0
vdd#branch                        -3.18958e-05


No. of Data Rows : 10008
out_max             =  3.94960e+00 at=  5.76328e-03
out_min             =  3.79080e+00 at=  9.26328e-03
vin_max             =  2.50100e+00 at=  9.25028e-03
vin_min             =  2.49900e+00 at=  9.75028e-03
ASCII raw file "D:/Codex/Support/results/ngspice/raw/bjt3_sweep_highcut_ch39p_tran.raw"
ngspice-46 done
