
Note: No compatibility mode selected!


Circuit: * sky130 bjt 3-stage explicit output low-pass section tran: rlp=150k, clp=15p, cload=10p

Warning: Model issue on line 28 :
  .model xq1:sky130_fd_pr__npn_05v5_w1p00l1p00__model npn level=1.0 tref=3 ...
unrecognized parameter (dcap) - ignored
unrecognized parameter (gap1) - ignored
unrecognized parameter (gap2) - ignored

Warning: Model issue on line 28 :
  .model xq2:sky130_fd_pr__npn_05v5_w1p00l1p00__model npn level=1.0 tref=3 ...
unrecognized parameter (dcap) - ignored
unrecognized parameter (gap1) - ignored
unrecognized parameter (gap2) - ignored

Warning: Model issue on line 28 :
  .model xq3:sky130_fd_pr__npn_05v5_w1p00l1p00__model npn level=1.0 tref=3 ...
unrecognized parameter (dcap) - ignored
unrecognized parameter (gap1) - ignored
unrecognized parameter (gap2) - ignored

Doing analysis at TEMP = 27.000000 and TNOM = 27.000000

Using KLU as Direct Linear Solver

No. of Data Rows : 1
Doing analysis at TEMP = 27.000000 and TNOM = 27.000000

Using KLU as Direct Linear Solver

Initial Transient Solution
--------------------------

Node                                   Voltage
----                                   -------
vdd                                          5
vin                                        2.5
b1_base                                0.96431
b1_collector                           3.82991
b1_emitter                            0.185174
b2_base                                0.96431
b2_collector                           3.82991
b2_emitter                            0.185174
b3_base                                0.96431
b3_collector                           3.82991
b3_emitter                            0.185174
vout_drv                                   2.5
vout_final                                 2.5
vin#branch                                   0
vdd#branch                        -3.31711e-05


No. of Data Rows : 20008
out_max             =  2.59431e+00 at=  9.97614e-02
out_min             =  2.40520e+00 at=  5.02614e-02
vin_max             =  2.50100e+00 at=  6.92514e-02
vin_min             =  2.49900e+00 at=  6.97514e-02
ASCII raw file "D:/Codex/Support/Microelectronics/results/ngspice/raw/bjt3_sweep_hflp_r150k_c15p_tran.raw"
ngspice-46 done
