
Note: Compatibility modes selected: hs a


Circuit: * sky130 bjt 3-stage gain/headroom sweep transient candidate: re=19k

Warning: Model issue on line 28 :
  .model xq1:sky130_fd_pr__npn_05v5_w1p00l1p00__model npn level=1.0 tref=3 ...
unrecognized parameter (dcap) - ignored
unrecognized parameter (gap1) - ignored
unrecognized parameter (gap2) - ignored

Warning: Model issue on line 28 :
  .model xq2:sky130_fd_pr__npn_05v5_w1p00l1p00__model npn level=1.0 tref=3 ...
unrecognized parameter (dcap) - ignored
unrecognized parameter (gap1) - ignored
unrecognized parameter (gap2) - ignored

Warning: Model issue on line 28 :
  .model xq3:sky130_fd_pr__npn_05v5_w1p00l1p00__model npn level=1.0 tref=3 ...
unrecognized parameter (dcap) - ignored
unrecognized parameter (gap1) - ignored
unrecognized parameter (gap2) - ignored

Doing analysis at TEMP = 27.000000 and TNOM = 27.000000

Using KLU as Direct Linear Solver

No. of Data Rows : 1
Doing analysis at TEMP = 27.000000 and TNOM = 27.000000

Using KLU as Direct Linear Solver

Initial Transient Solution
--------------------------

Node                                   Voltage
----                                   -------
vdd                                          5
vin                                        2.5
b1_base                               0.966708
b1_collector                           3.84388
b1_emitter                            0.187907
b2_base                               0.966708
b2_collector                           3.84388
b2_emitter                            0.187907
b3_base                               0.966708
b3_collector                           3.84342
b3_emitter                            0.187907
vout_final                             3.84342
vout_alias#branch                 -3.84342e-09
vin#branch                                   0
vdd#branch                        -3.25735e-05


No. of Data Rows : 20008
out_max             =  3.93382e+00 at=  9.97564e-02
out_min             =  3.75245e+00 at=  6.12564e-02
vin_max             =  2.50100e+00 at=  6.92514e-02
vin_min             =  2.49900e+00 at=  6.97514e-02
ASCII raw file "D:/Codex/Support/results/ngspice/raw/bjt3_sweep_gain_re19k_tran.raw"
ngspice-46 done
