
Note: Compatibility modes selected: hs a


Circuit: * sky130 bjt 3-stage gain/headroom sweep operating point candidate: re=18k

Warning: Model issue on line 28 :
  .model xq1:sky130_fd_pr__npn_05v5_w1p00l1p00__model npn level=1.0 tref=3 ...
unrecognized parameter (dcap) - ignored
unrecognized parameter (gap1) - ignored
unrecognized parameter (gap2) - ignored

Warning: Model issue on line 28 :
  .model xq2:sky130_fd_pr__npn_05v5_w1p00l1p00__model npn level=1.0 tref=3 ...
unrecognized parameter (dcap) - ignored
unrecognized parameter (gap1) - ignored
unrecognized parameter (gap2) - ignored

Warning: Model issue on line 28 :
  .model xq3:sky130_fd_pr__npn_05v5_w1p00l1p00__model npn level=1.0 tref=3 ...
unrecognized parameter (dcap) - ignored
unrecognized parameter (gap1) - ignored
unrecognized parameter (gap2) - ignored

Doing analysis at TEMP = 27.000000 and TNOM = 27.000000

Using KLU as Direct Linear Solver

No. of Data Rows : 1
v(vdd) = 5.000000e+00
v(b1_base) = 9.618505e-01
v(b1_emitter) = 1.823750e-01
v(b1_collector) = 3.815586e+00
v(b2_base) = 9.618505e-01
v(b2_emitter) = 1.823750e-01
v(b2_collector) = 3.815586e+00
v(b3_base) = 9.618501e-01
v(b3_emitter) = 1.823745e-01
v(b3_collector) = 3.815131e+00
v(vout_final) = 3.815131e+00
v(b1_base)-v(b1_emitter) = 7.794755e-01
v(b1_collector)-v(b1_emitter) = 3.633211e+00
v(b2_base)-v(b2_emitter) = 7.794755e-01
v(b2_collector)-v(b2_emitter) = 3.633211e+00
v(b3_base)-v(b3_emitter) = 7.794756e-01
v(b3_collector)-v(b3_emitter) = 3.632757e+00
i(vdd) = -3.32852e-05
ASCII raw file "D:/Codex/Support/results/ngspice/raw/bjt3_sweep_gain_re18k_op.raw"
ngspice-46 done
