
Note: Compatibility modes selected: hs a


Circuit: * sky130 bjt 3-stage final candidate dc operating point: ch=30p

Warning: Model issue on line 28 :
  .model xq1:sky130_fd_pr__npn_05v5_w1p00l1p00__model npn level=1.0 tref=3 ...
unrecognized parameter (dcap) - ignored
unrecognized parameter (gap1) - ignored
unrecognized parameter (gap2) - ignored

Warning: Model issue on line 28 :
  .model xq2:sky130_fd_pr__npn_05v5_w1p00l1p00__model npn level=1.0 tref=3 ...
unrecognized parameter (dcap) - ignored
unrecognized parameter (gap1) - ignored
unrecognized parameter (gap2) - ignored

Warning: Model issue on line 28 :
  .model xq3:sky130_fd_pr__npn_05v5_w1p00l1p00__model npn level=1.0 tref=3 ...
unrecognized parameter (dcap) - ignored
unrecognized parameter (gap1) - ignored
unrecognized parameter (gap2) - ignored

Doing analysis at TEMP = 27.000000 and TNOM = 27.000000

Using KLU as Direct Linear Solver

No. of Data Rows : 1
v(vdd) = 5.000000e+00
v(b1_base) = 9.713302e-01
v(b1_emitter) = 1.931860e-01
v(b1_collector) = 3.870821e+00
v(b2_base) = 9.713302e-01
v(b2_emitter) = 1.931860e-01
v(b2_collector) = 3.870821e+00
v(b3_base) = 9.713298e-01
v(b3_emitter) = 1.931856e-01
v(b3_collector) = 3.870359e+00
v(vout_final) = 3.870359e+00
v(b1_base)-v(b1_emitter) = 7.781442e-01
v(b1_collector)-v(b1_emitter) = 3.677635e+00
v(b2_base)-v(b2_emitter) = 7.781442e-01
v(b2_collector)-v(b2_emitter) = 3.677635e+00
v(b3_base)-v(b3_emitter) = 7.781442e-01
v(b3_collector)-v(b3_emitter) = 3.677174e+00
v(b1_collector)-v(b2_base) = 2.899491e+00
v(b2_collector)-v(b3_base) = 2.899491e+00
i(vdd) = -3.18958e-05
ASCII raw file "D:/Codex/Support/results/ngspice/raw/bjt3_sweep_highcut_ch30p_op.raw"
ngspice-46 done
